/*--------------------------------*- C++ -*----------------------------------*\ 
|             BlockMeshDict generated by hexBlocker                           | 
\*---------------------------------------------------------------------------*/ 
FoamFile 
{
	 version 	 2.0;
	 format 	 ascii;
	 class 		 dictionary; 
	 object 	 blockMeshDict; 
}
convertToMeters 1;

vertices
(
	(0 0 0) //0
	(3 0 0) //1
	(3 3 0) //2
	(0 3 0) //3
	(0 0 1) //4
	(3 0 1) //5
	(3 3 1) //6
	(0 3 1) //7
	(0 0 1) //8
	(3 0 1) //9
	(3 3 1) //10
	(0 3 1) //11
	(0 0 2) //12
	(3 0 2) //13
	(3 3 2) //14
	(0 3 2) //15
	(0 0 2) //16
	(3 0 2) //17
	(3 3 2) //18
	(0 3 2) //19
	(0 0 3) //20
	(3 0 3) //21
	(3 3 3) //22
	(0 3 3) //23

);

blocks
(
	 hex (0 1 2 3 4 5 6 7) (10 10 10) simpleGrading (1 1 1)
	 hex (8 9 10 11 12 13 14 15) (10 10 10) simpleGrading (1 1 1)
	 hex (16 17 18 19 20 21 22 23) (10 10 10) simpleGrading (1 1 1)

);

boundary
(
);

edges
(
);
