/*--------------------------------*- C++ -*----------------------------------*\
| =========                 |                                                 |
| \\      /  F ield         | OpenFOAM: The Open Source CFD Toolbox           |
|  \\    /   O peration     | Version:  3.0.x                                 |
|   \\  /    A nd           | Web:      www.OpenFOAM.org                      |
|    \\/     M anipulation  |                                                 |
\*---------------------------------------------------------------------------*/
FoamFile
{
    version     2.0;
    format      ascii;
    class       dictionary;
    location    "system";
    object      setFieldsDict;
}
// * * * * * * * * * * * * * * * * * * * * * * * * * * * * * * * * * * * * * //

defaultFieldValues
(
    volScalarFieldValue alpha.air 0
    volScalarFieldValue alpha.other 1
    volScalarFieldValue alpha.water 0
);

regions
(
    boxToCell
    {
        box (0 0 0.3) (1 1 0.5368);
        fieldValues
        (
            volScalarFieldValue alpha.air 0
            volScalarFieldValue alpha.other 0
            volScalarFieldValue alpha.water 1
        );
    }
    boxToCell
    {
        box (0 0 0.5368) (1 1 1);
        fieldValues
        (
            volScalarFieldValue alpha.air 1
            volScalarFieldValue alpha.other 0
            volScalarFieldValue alpha.water 0
        );
    }
);


// ************************************************************************* //
