/*--------------------------------*- C++ -*----------------------------------*\
| =========                 |                                                 |
| \\      /  F ield         | OpenFOAM: The Open Source CFD Toolbox           |
|  \\    /   O peration     | Version:  3.0.x                                 |
|   \\  /    A nd           | Web:      www.OpenFOAM.org                      |
|    \\/     M anipulation  |                                                 |
\*---------------------------------------------------------------------------*/
FoamFile
{
    version     2.0;
    format      ascii;
    class       polyBoundaryMesh;
    location    "constant/polyMesh";
    object      boundary;
}
// * * * * * * * * * * * * * * * * * * * * * * * * * * * * * * * * * * * * * //

3
(
    stationaryWalls
    {
        type            wall;
        inGroups        1(wall);
        nFaces          2800;
        startFace       33644;
    }
    atmosphere
    {
        type            patch;
        nFaces          400;
        startFace       36444;
    }
    floatingObject
    {
        type            wall;
        inGroups        1(wall);
        nFaces          216;
        startFace       36844;
    }
)

// ************************************************************************* //
