/*--------------------------------*- C++ -*----------------------------------*\
| =========                 |                                                 |
| \\      /  F ield         | OpenFOAM: The Open Source CFD Toolbox           |
|  \\    /   O peration     | Version:  3.0.1                                 |
|   \\  /    A nd           | Web:      www.OpenFOAM.org                      |
|    \\/     M anipulation  |                                                 |
\*---------------------------------------------------------------------------*/
FoamFile
{
    version     2.0;
    format      ascii;
    class       dictionary;
    location    "system";
    object      setFieldsDict;
}
// * * * * * * * * * * * * * * * * * * * * * * * * * * * * * * * * * * * * * //

defaultFieldValues
(
    volScalarFieldValue alpha.water 0
);

regions
(
    boxToCell
    {
        box (-100 -100 -100) (100 100 0.5);
        fieldValues ( volScalarFieldValue alpha.water 1 );
    }

    fieldToCell
    {
        fieldName U;
	min 0.4;
	max 0.6;
        fieldValues (volScalarFieldValue alpha.water 1 );
    }

/*
    boxToCell
    {
        box (0.7 0.8 -100) (100 100 0.65);
        fieldValues ( volScalarFieldValue alpha.water 1 );
    }
*/
);

// ************************************************************************* //
